<?xml version="1.0" encoding="UTF-8"?>

<!-- generated on 2025-03-17 14:44:44.078675 by randomTrips.py v1_22_0+0002-63e50f52594
<configuration>
    <net-file value="osm.net.xml.gz"/>
    <output-trip-file value="osm.passenger.trips.xml"/>
    <route-file value="osm.passenger.rou.xml"/>
    <prefix value="veh"/>
    <trip-attributes value="departLane=&quot;best&quot;"/>
    <fringe-start-attributes value="departSpeed=&quot;max&quot;"/>
    <vehicle-class value="passenger"/>
    <lanes value="True"/>
    <fringe-factor value="5"/>
    <allow-fringe.min-length value="1000.0"/>
    <via-edge-types value="highway.motorway,highway.motorway_link,highway.trunk_link,highway.primary_link,highway.secondary_link,highway.tertiary_link"/>
    <min-distance value="300.0"/>
    <min-distance.fringe value="10.0"/>
    <remove-loops value="True"/>
    <validate value="True"/>
    <insertion-density value="12.0"/>
</configuration>
-->

<routes xmlns:xsi="http://www.w3.org/2001/XMLSchema-instance" xsi:noNamespaceSchemaLocation="http://sumo.dlr.de/xsd/routes_file.xsd">
    <vType id="veh_passenger" vClass="passenger"/>
    <trip id="veh0" depart="0.00" from="2514019#0" to="-1068361596" departLane="best" type="veh_passenger"/>
    <trip id="veh1" depart="2.50" from="-4270743" to="-4255368#1" departLane="best" type="veh_passenger" departSpeed="max"/>
    <trip id="veh2" depart="4.99" from="4253608#0" to="4084180" departLane="best" type="veh_passenger"/>
    <trip id="veh3" depart="7.49" from="643233291#0" to="-170470267#2" departLane="best" type="veh_passenger"/>
    <trip id="veh4" depart="9.99" from="-901407348" to="-1083286827#0" departLane="best" type="veh_passenger"/>
    <trip id="veh5" depart="12.48" from="-4253266#5" to="164679417" departLane="best" type="veh_passenger" departSpeed="max"/>
    <trip id="veh6" depart="14.98" from="-1069111991" to="-4253449#5" departLane="best" type="veh_passenger"/>
    <trip id="veh7" depart="17.47" from="286754706#0" to="227390982" departLane="best" type="veh_passenger"/>
    <trip id="veh8" depart="19.97" from="-4253294#2" to="257772662" departLane="best" type="veh_passenger" departSpeed="max"/>
    <trip id="veh9" depart="22.47" from="4607839" to="-1065112883" departLane="best" type="veh_passenger" departSpeed="max"/>
    <trip id="veh10" depart="24.96" from="456796604" to="4253383#0" departLane="best" type="veh_passenger"/>
    <trip id="veh11" depart="27.46" from="841533481" to="-780411383" departLane="best" type="veh_passenger"/>
    <trip id="veh12" depart="29.96" from="-18131106#1" to="-186578128" departLane="best" type="veh_passenger"/>
    <trip id="veh13" depart="32.45" from="534033246#1" to="28811328#0" departLane="best" type="veh_passenger"/>
    <trip id="veh14" depart="34.95" from="459433619#0" to="4254662#8" departLane="best" type="veh_passenger"/>
    <trip id="veh15" depart="37.44" from="1362114227#0" to="901407338#1" departLane="best" type="veh_passenger"/>
    <trip id="veh16" depart="39.94" from="-693628472" to="22812251" departLane="best" type="veh_passenger"/>
    <trip id="veh17" depart="42.44" from="493711859#0" to="32592873#0" departLane="best" type="veh_passenger"/>
    <trip id="veh18" depart="44.93" from="578170386" to="2499055" departLane="best" type="veh_passenger"/>
    <trip id="veh20" depart="49.93" from="-4253440#2" to="-6012205#4" departLane="best" type="veh_passenger" departSpeed="max"/>
    <trip id="veh21" depart="52.42" from="-155894302" to="-4256524#3" departLane="best" type="veh_passenger"/>
    <trip id="veh22" depart="54.92" from="-201756812#16" to="-563014826#2" departLane="best" type="veh_passenger"/>
    <trip id="veh24" depart="59.91" from="-4255948#2" to="827537943#1" departLane="best" type="veh_passenger" departSpeed="max"/>
    <trip id="veh25" depart="62.41" from="279401433" to="295993258" departLane="best" type="veh_passenger"/>
    <trip id="veh26" depart="64.90" from="-369663857" to="4254662#0" departLane="best" type="veh_passenger"/>
    <trip id="veh27" depart="67.40" from="971510105" to="3754026" departLane="best" type="veh_passenger"/>
    <trip id="veh28" depart="69.90" from="158615412" to="4231084#0" departLane="best" type="veh_passenger" departSpeed="max"/>
    <trip id="veh29" depart="72.39" from="511856175#0" to="4340873#0" departLane="best" type="veh_passenger"/>
    <trip id="veh30" depart="74.89" from="-4253449#2" to="-1145543201" departLane="best" type="veh_passenger"/>
    <trip id="veh31" depart="77.39" from="-4833001#2" to="-517045944#3" departLane="best" type="veh_passenger" departSpeed="max"/>
    <trip id="veh32" depart="79.88" from="-4223940#1" to="833222606" departLane="best" type="veh_passenger" departSpeed="max"/>
    <trip id="veh33" depart="82.38" from="609056649" to="-694838645#4" departLane="best" type="veh_passenger" departSpeed="max"/>
    <trip id="veh34" depart="84.87" from="73058401" to="1264780821" departLane="best" type="veh_passenger"/>
    <trip id="veh35" depart="87.37" from="-4255916#3" to="-444894367" departLane="best" type="veh_passenger" departSpeed="max"/>
    <trip id="veh36" depart="89.87" from="166585295#1" to="-502509272" departLane="best" type="veh_passenger"/>
    <trip id="veh37" depart="92.36" from="19803901#0" to="6273411" departLane="best" type="veh_passenger"/>
    <trip id="veh38" depart="94.86" from="-831783069#3" to="-4255329#0" departLane="best" type="veh_passenger"/>
    <trip id="veh39" depart="97.36" from="978195961#1" to="166594100" departLane="best" type="veh_passenger"/>
    <trip id="veh40" depart="99.85" from="-174640049" to="-1220704299#1" departLane="best" type="veh_passenger"/>
    <trip id="veh41" depart="102.35" from="-227558478" to="3709266#2" departLane="best" type="veh_passenger"/>
    <trip id="veh42" depart="104.85" from="4340737" to="1145478722#0" departLane="best" type="veh_passenger"/>
    <trip id="veh43" depart="107.34" from="-140160990#1" to="1051388676" departLane="best" type="veh_passenger"/>
    <trip id="veh44" depart="109.84" from="977470480" to="201756812#2" departLane="best" type="veh_passenger" departSpeed="max"/>
    <trip id="veh45" depart="112.33" from="-1065201828" to="4254079#1" departLane="best" type="veh_passenger" departSpeed="max"/>
    <trip id="veh46" depart="114.83" from="-4255941" to="3754070#0" departLane="best" type="veh_passenger"/>
    <trip id="veh47" depart="117.33" from="-228015712#2" to="121898253" departLane="best" type="veh_passenger"/>
    <trip id="veh48" depart="119.82" from="1065083430#0" to="859453205#0" departLane="best" type="veh_passenger"/>
    <trip id="veh49" depart="122.32" from="609056649" to="-5067431#1" departLane="best" type="veh_passenger" departSpeed="max"/>
    <trip id="veh50" depart="124.82" from="120241877" to="-4223933#3" departLane="best" type="veh_passenger"/>
    <trip id="veh51" depart="127.31" from="726583329#1" to="562832542" departLane="best" type="veh_passenger"/>
    <trip id="veh52" depart="129.81" from="-458181878#1" to="3754020#1" departLane="best" type="veh_passenger"/>
    <trip id="veh53" depart="132.30" from="227392484#0" to="-35359130#1" departLane="best" type="veh_passenger"/>
    <trip id="veh54" depart="134.80" from="4255352" to="207807965#0" departLane="best" type="veh_passenger"/>
    <trip id="veh55" depart="137.30" from="4256510" to="201757213#1" departLane="best" type="veh_passenger"/>
    <trip id="veh56" depart="139.79" from="-100306144" to="-732154817#0" departLane="best" type="veh_passenger"/>
    <trip id="veh57" depart="142.29" from="-1065218296#1" to="745522849#2" departLane="best" type="veh_passenger"/>
    <trip id="veh58" depart="144.79" from="61074713#0" to="4839579#0" departLane="best" type="veh_passenger"/>
    <trip id="veh59" depart="147.28" from="-461488082" to="-1330781215" departLane="best" type="veh_passenger"/>
    <trip id="veh60" depart="149.78" from="609061152#0" to="840264350#3" departLane="best" type="veh_passenger"/>
    <trip id="veh61" depart="152.28" from="-166585298#3" to="154540881#2" departLane="best" type="veh_passenger"/>
    <trip id="veh62" depart="154.77" from="-148685789#2" to="4256573#0" departLane="best" type="veh_passenger" departSpeed="max"/>
    <trip id="veh63" depart="157.27" from="4255369" to="-250328427#0" departLane="best" type="veh_passenger"/>
    <trip id="veh64" depart="159.76" from="1068477985" to="22780597" departLane="best" type="veh_passenger"/>
    <trip id="veh65" depart="162.26" from="-4255932#1" to="578170386" departLane="best" type="veh_passenger" departSpeed="max"/>
    <trip id="veh66" depart="164.76" from="-908516371" to="-4254629" departLane="best" type="veh_passenger" departSpeed="max"/>
    <trip id="veh67" depart="167.25" from="1362713868" to="4254685#0" departLane="best" type="veh_passenger" departSpeed="max"/>
    <trip id="veh68" depart="169.75" from="-4084013#0" to="-691547353" departLane="best" type="veh_passenger"/>
    <trip id="veh69" depart="172.25" from="977104959#0" to="379485583#0" departLane="best" type="veh_passenger"/>
    <trip id="veh70" depart="174.74" from="-978195961#0" to="17983297#0" departLane="best" type="veh_passenger"/>
    <trip id="veh71" depart="177.24" from="-23162166" to="-4255372#3" departLane="best" type="veh_passenger" departSpeed="max"/>
    <trip id="veh72" depart="179.73" from="-544787766" to="256771620" departLane="best" type="veh_passenger" departSpeed="max"/>
    <trip id="veh73" depart="182.23" from="-4253530#1" to="-4255329#0" departLane="best" type="veh_passenger" departSpeed="max"/>
    <trip id="veh74" depart="184.73" from="-154540879#3" to="3727760#2" departLane="best" type="veh_passenger" departSpeed="max"/>
    <trip id="veh75" depart="187.22" from="-4253449#2" to="643233292#0" departLane="best" type="veh_passenger"/>
    <trip id="veh76" depart="189.72" from="569089299" to="-151942042#1" departLane="best" type="veh_passenger"/>
    <trip id="veh77" depart="192.22" from="-4253827" to="405576219" departLane="best" type="veh_passenger"/>
    <trip id="veh78" depart="194.71" from="-4250577#4" to="-2514020#2" departLane="best" type="veh_passenger" departSpeed="max"/>
    <trip id="veh79" depart="197.21" from="79318523" to="2428140#0" departLane="best" type="veh_passenger"/>
    <trip id="veh80" depart="199.71" from="1068358101" to="4352114#0" departLane="best" type="veh_passenger" departSpeed="max"/>
    <trip id="veh81" depart="202.20" from="459930801" to="-4253383#4" departLane="best" type="veh_passenger"/>
    <trip id="veh82" depart="204.70" from="-19803901#0" to="1193908604" departLane="best" type="veh_passenger"/>
    <trip id="veh83" depart="207.19" from="-908516371" to="1339755351#0" departLane="best" type="veh_passenger" departSpeed="max"/>
    <trip id="veh84" depart="209.69" from="4253423" to="4084012#0" departLane="best" type="veh_passenger"/>
    <trip id="veh85" depart="212.19" from="949222754#1" to="-19803901#0" departLane="best" type="veh_passenger"/>
    <trip id="veh86" depart="214.68" from="-8367174#2" to="-819273391#1" departLane="best" type="veh_passenger"/>
    <trip id="veh87" depart="217.18" from="578170386" to="-4607839" departLane="best" type="veh_passenger"/>
    <trip id="veh88" depart="219.68" from="-38770925#1" to="1255793043" departLane="best" type="veh_passenger"/>
    <trip id="veh89" depart="222.17" from="-901407348" to="-563014826#2" departLane="best" type="veh_passenger"/>
    <trip id="veh90" depart="224.67" from="-4255327" to="732152397" departLane="best" type="veh_passenger" departSpeed="max"/>
    <trip id="veh91" depart="227.16" from="100306119" to="534033248#1" departLane="best" type="veh_passenger"/>
    <trip id="veh92" depart="229.66" from="156097875#1" to="-1255793036" departLane="best" type="veh_passenger"/>
    <trip id="veh93" depart="232.16" from="99944949#0" to="4839806#0" departLane="best" type="veh_passenger"/>
    <trip id="veh94" depart="234.65" from="888781925#0" to="74167680" departLane="best" type="veh_passenger"/>
    <trip id="veh95" depart="237.15" from="534033248#0" to="-39535531#1" departLane="best" type="veh_passenger"/>
    <trip id="veh96" depart="239.65" from="1124724126" to="-4254651#1" departLane="best" type="veh_passenger"/>
    <trip id="veh97" depart="242.14" from="-83398075#1" to="-1339922648#1" departLane="best" type="veh_passenger" departSpeed="max"/>
    <trip id="veh98" depart="244.64" from="-693628472" to="969918601" departLane="best" type="veh_passenger"/>
    <trip id="veh99" depart="247.14" from="-4255932#1" to="4352113#3" departLane="best" type="veh_passenger" departSpeed="max"/>
    <trip id="veh100" depart="249.63" from="1065201820#0" to="1145543201" departLane="best" type="veh_passenger"/>
    <trip id="veh101" depart="252.13" from="841533481" to="98985497#2" departLane="best" type="veh_passenger"/>
    <trip id="veh102" depart="254.62" from="157547564#0" to="4253976#0" departLane="best" type="veh_passenger" departSpeed="max"/>
    <trip id="veh103" depart="257.12" from="-28811328#3" to="-612050466" departLane="best" type="veh_passenger" departSpeed="max"/>
    <trip id="veh104" depart="259.62" from="888781924" to="2499080#1" departLane="best" type="veh_passenger"/>
    <trip id="veh105" depart="262.11" from="148314505" to="4255856#0" departLane="best" type="veh_passenger"/>
    <trip id="veh106" depart="264.61" from="-1341027691#2" to="250328430#6" departLane="best" type="veh_passenger" departSpeed="max"/>
    <trip id="veh107" depart="267.11" from="1209394318" to="5067434#7" departLane="best" type="veh_passenger"/>
    <trip id="veh108" depart="269.60" from="-303994872#1" to="888781920#1" departLane="best" type="veh_passenger"/>
    <trip id="veh109" depart="272.10" from="-156097875#0" to="-42527972#0" departLane="best" type="veh_passenger"/>
    <trip id="veh110" depart="274.59" from="207807964#0" to="4084180" departLane="best" type="veh_passenger"/>
    <trip id="veh111" depart="277.09" from="-4253789" to="-243346496#2" departLane="best" type="veh_passenger"/>
    <trip id="veh112" depart="279.59" from="628446081" to="-440100157#1" departLane="best" type="veh_passenger"/>
    <trip id="veh113" depart="282.08" from="207807963#0" to="330437#0" departLane="best" type="veh_passenger"/>
    <trip id="veh114" depart="284.58" from="-896794987" to="250328430#5" departLane="best" type="veh_passenger" departSpeed="max"/>
    <trip id="veh115" depart="287.08" from="1285809539#0" to="804474166#1" departLane="best" type="veh_passenger"/>
    <trip id="veh116" depart="289.57" from="-4135475#3" to="4253797#0" departLane="best" type="veh_passenger" departSpeed="max"/>
    <trip id="veh117" depart="292.07" from="3700585#2" to="-6273407" departLane="best" type="veh_passenger"/>
    <trip id="veh118" depart="294.57" from="-4833033#2" to="4255916#0" departLane="best" type="veh_passenger" departSpeed="max"/>
    <trip id="veh119" depart="297.06" from="-154540881#1" to="1264780821" departLane="best" type="veh_passenger"/>
    <trip id="veh120" depart="299.56" from="99944947#0" to="98985497#2" departLane="best" type="veh_passenger"/>
    <trip id="veh121" depart="302.05" from="-154540885" to="-4254638#7" departLane="best" type="veh_passenger" departSpeed="max"/>
    <trip id="veh122" depart="304.55" from="-4255932#1" to="79318523" departLane="best" type="veh_passenger" departSpeed="max"/>
    <trip id="veh123" depart="307.05" from="616811841#0" to="6012205#5" departLane="best" type="veh_passenger" departSpeed="max"/>
    <trip id="veh124" depart="309.54" from="-637031477#1" to="-3713822#3" departLane="best" type="veh_passenger"/>
    <trip id="veh125" depart="312.04" from="4969733#0" to="4253430#0" departLane="best" type="veh_passenger" departSpeed="max"/>
    <trip id="veh126" depart="314.54" from="227558478" to="971510104" departLane="best" type="veh_passenger"/>
    <trip id="veh127" depart="317.03" from="293598611" to="-1065201821#0" departLane="best" type="veh_passenger"/>
    <trip id="veh128" depart="319.53" from="33303929#0" to="827537943#1" departLane="best" type="veh_passenger" departSpeed="max"/>
    <trip id="veh129" depart="322.03" from="-250325163" to="-234295188#3" departLane="best" type="veh_passenger"/>
    <trip id="veh130" depart="324.52" from="-4256524#3" to="28811328#0" departLane="best" type="veh_passenger"/>
    <trip id="veh131" depart="327.02" from="4248704#12" to="-4253639#0" departLane="best" type="veh_passenger"/>
    <trip id="veh132" depart="329.51" from="250325162" to="-5067434#10" departLane="best" type="veh_passenger"/>
    <trip id="veh133" depart="332.01" from="1145543201" to="643233291#0" departLane="best" type="veh_passenger"/>
    <trip id="veh134" depart="334.51" from="534031400#2" to="-18122224#2" departLane="best" type="veh_passenger"/>
    <trip id="veh135" depart="337.00" from="-908516371" to="-557204292#2" departLane="best" type="veh_passenger" departSpeed="max"/>
    <trip id="veh136" depart="339.50" from="-1054937080#1" to="4336664#5" departLane="best" type="veh_passenger"/>
    <trip id="veh137" depart="342.00" from="250328430#5" to="-502509254#0" departLane="best" type="veh_passenger"/>
    <trip id="veh138" depart="344.49" from="4253683" to="22812251" departLane="best" type="veh_passenger"/>
    <trip id="veh139" depart="346.99" from="-959924582" to="-1065201825" departLane="best" type="veh_passenger" departSpeed="max"/>
    <trip id="veh140" depart="349.48" from="-154540889#0" to="60266052#3" departLane="best" type="veh_passenger"/>
    <trip id="veh141" depart="351.98" from="693628464" to="227392231#0" departLane="best" type="veh_passenger"/>
    <trip id="veh142" depart="354.48" from="49780458#0" to="250328430#0" departLane="best" type="veh_passenger"/>
    <trip id="veh143" depart="356.97" from="-27115356" to="-250325170#0" departLane="best" type="veh_passenger" departSpeed="max"/>
    <trip id="veh144" depart="359.47" from="-461729140" to="627472867" departLane="best" type="veh_passenger"/>
    <trip id="veh145" depart="361.97" from="4352113#2" to="534033247#2" departLane="best" type="veh_passenger"/>
    <trip id="veh146" depart="364.46" from="67850646" to="-4253976#0" departLane="best" type="veh_passenger" departSpeed="max"/>
    <trip id="veh147" depart="366.96" from="-4255327" to="-207807963#1" departLane="best" type="veh_passenger" departSpeed="max"/>
    <trip id="veh148" depart="369.46" from="4256577#0" to="609058172#0" departLane="best" type="veh_passenger"/>
    <trip id="veh149" depart="371.95" from="-8431660#1" to="33303929#1" departLane="best" type="veh_passenger"/>
    <trip id="veh150" depart="374.45" from="-28811328#3" to="76845890#0" departLane="best" type="veh_passenger" departSpeed="max"/>
    <trip id="veh151" depart="376.94" from="581735920#0" to="9354230" departLane="best" type="veh_passenger"/>
    <trip id="veh152" depart="379.44" from="461650982#0" to="60266052#0" departLane="best" type="veh_passenger"/>
    <trip id="veh153" depart="381.94" from="-1068362579" to="4255329#1" departLane="best" type="veh_passenger"/>
    <trip id="veh154" depart="384.43" from="-517613525#1" to="773853950" departLane="best" type="veh_passenger"/>
    <trip id="veh155" depart="386.93" from="4390224#1" to="544787769" departLane="best" type="veh_passenger"/>
    <trip id="veh156" depart="389.43" from="461650982#0" to="-511856175#1" departLane="best" type="veh_passenger"/>
    <trip id="veh157" depart="391.92" from="4268660" to="-207811356#1" departLane="best" type="veh_passenger"/>
    <trip id="veh158" depart="394.42" from="6012211" to="534031400#2" departLane="best" type="veh_passenger" departSpeed="max"/>
    <trip id="veh159" depart="396.91" from="-4253383#4" to="4615512#0" departLane="best" type="veh_passenger"/>
    <trip id="veh160" depart="399.41" from="1065201832" to="-651508941" departLane="best" type="veh_passenger"/>
    <trip id="veh161" depart="401.91" from="4352112" to="-425548225#1" departLane="best" type="veh_passenger" departSpeed="max"/>
    <trip id="veh162" depart="404.40" from="-1068357078" to="-4253416#2" departLane="best" type="veh_passenger" departSpeed="max"/>
    <trip id="veh163" depart="406.90" from="-5067434#10" to="544787770#0" departLane="best" type="veh_passenger"/>
    <trip id="veh164" depart="409.40" from="886590027#1" to="-569089299" departLane="best" type="veh_passenger"/>
    <trip id="veh165" depart="411.89" from="25247811#3" to="1065201844#1" departLane="best" type="veh_passenger"/>
    <trip id="veh166" depart="414.39" from="948878641" to="204125844" departLane="best" type="veh_passenger"/>
    <trip id="veh167" depart="416.89" from="809008496#0" to="-234295188#3" departLane="best" type="veh_passenger"/>
    <trip id="veh168" depart="419.38" from="894935974" to="-4223933#3" departLane="best" type="veh_passenger"/>
    <trip id="veh169" depart="421.88" from="851786599" to="-5067434#8" departLane="best" type="veh_passenger" departSpeed="max"/>
    <trip id="veh170" depart="424.37" from="-227392231#1" to="1211386639" departLane="best" type="veh_passenger"/>
    <trip id="veh171" depart="426.87" from="4253419#0" to="-693628472" departLane="best" type="veh_passenger"/>
    <trip id="veh172" depart="429.37" from="227390977#3" to="170470267#3" departLane="best" type="veh_passenger"/>
    <trip id="veh173" depart="431.86" from="-732154817#4" to="2498997#0" departLane="best" type="veh_passenger"/>
    <trip id="veh174" depart="434.36" from="-4255368#1" to="4253487" departLane="best" type="veh_passenger"/>
    <trip id="veh175" depart="436.86" from="-1051388680#1" to="73823309" departLane="best" type="veh_passenger"/>
    <trip id="veh176" depart="439.35" from="1362713868" to="4254003" departLane="best" type="veh_passenger" departSpeed="max"/>
    <trip id="veh177" depart="441.85" from="4253686" to="405576220#0" departLane="best" type="veh_passenger" departSpeed="max"/>
    <trip id="veh178" depart="444.34" from="-6273411" to="-148685786#1" departLane="best" type="veh_passenger" departSpeed="max"/>
    <trip id="veh179" depart="446.84" from="33303929#0" to="-74012066" departLane="best" type="veh_passenger" departSpeed="max"/>
    <trip id="veh180" depart="449.34" from="-479915597#4" to="49780455" departLane="best" type="veh_passenger"/>
    <trip id="veh181" depart="451.83" from="4252510#0" to="-6273407" departLane="best" type="veh_passenger"/>
    <trip id="veh182" depart="454.33" from="-47009681#4" to="1068072015#1" departLane="best" type="veh_passenger"/>
    <trip id="veh183" depart="456.83" from="-8367174#2" to="-611349169" departLane="best" type="veh_passenger"/>
    <trip id="veh184" depart="459.32" from="-246647169#3" to="1124724126" departLane="best" type="veh_passenger"/>
    <trip id="veh185" depart="461.82" from="819273391#0" to="41518094#0" departLane="best" type="veh_passenger" departSpeed="max"/>
    <trip id="veh186" depart="464.32" from="693628457" to="3076785#0" departLane="best" type="veh_passenger"/>
    <trip id="veh187" depart="466.81" from="-45887561#2" to="227558478" departLane="best" type="veh_passenger" departSpeed="max"/>
    <trip id="veh188" depart="469.31" from="-100306144" to="-6012202#1" departLane="best" type="veh_passenger"/>
    <trip id="veh189" depart="471.80" from="-97175531#1" to="2499081#1" departLane="best" type="veh_passenger" departSpeed="max"/>
    <trip id="veh190" depart="474.30" from="2953548#0" to="1317023784" departLane="best" type="veh_passenger"/>
    <trip id="veh191" depart="476.80" from="-99944945" to="-4254643" departLane="best" type="veh_passenger" departSpeed="max"/>
    <trip id="veh192" depart="479.29" from="1068358101" to="627472867" departLane="best" type="veh_passenger" departSpeed="max"/>
    <trip id="veh193" depart="481.79" from="4352113#2" to="-4074212#3" departLane="best" type="veh_passenger"/>
    <trip id="veh194" depart="484.29" from="-166585294#1" to="174640049" departLane="best" type="veh_passenger"/>
    <trip id="veh195" depart="486.78" from="48379490" to="4255916#0" departLane="best" type="veh_passenger" departSpeed="max"/>
    <trip id="veh196" depart="489.28" from="3709266#2" to="-4255372#3" departLane="best" type="veh_passenger"/>
    <trip id="veh197" depart="491.77" from="-405576220#1" to="-1068358101" departLane="best" type="veh_passenger" departSpeed="max"/>
    <trip id="veh198" depart="494.27" from="-4254662#9" to="146418648#1" departLane="best" type="veh_passenger"/>
    <trip id="veh199" depart="496.77" from="534082989#0" to="-154540870#2" departLane="best" type="veh_passenger"/>
    <trip id="veh200" depart="499.26" from="-87082517" to="3713822#0" departLane="best" type="veh_passenger" departSpeed="max"/>
    <trip id="veh201" depart="501.76" from="-3959463#1" to="4253294#1" departLane="best" type="veh_passenger"/>
    <trip id="veh202" depart="504.26" from="117028044" to="-4352312#1" departLane="best" type="veh_passenger" departSpeed="max"/>
    <trip id="veh203" depart="506.75" from="303994872#0" to="-1055385139#1" departLane="best" type="veh_passenger"/>
    <trip id="veh204" depart="509.25" from="4254627#0" to="4336664#2" departLane="best" type="veh_passenger"/>
    <trip id="veh205" depart="511.75" from="-207807964#2" to="1161286764" departLane="best" type="veh_passenger"/>
    <trip id="veh206" depart="514.24" from="-37329800" to="88389212#0" departLane="best" type="veh_passenger" departSpeed="max"/>
    <trip id="veh207" depart="516.74" from="1260443448" to="-1250177742" departLane="best" type="veh_passenger"/>
    <trip id="veh208" depart="519.23" from="-4255327" to="49780458#0" departLane="best" type="veh_passenger" departSpeed="max"/>
    <trip id="veh209" depart="521.73" from="1065201823" to="4484039#0" departLane="best" type="veh_passenger"/>
    <trip id="veh210" depart="524.23" from="356738820" to="971510105" departLane="best" type="veh_passenger" departSpeed="max"/>
    <trip id="veh211" depart="526.72" from="207807965#0" to="8431654" departLane="best" type="veh_passenger"/>
    <trip id="veh212" depart="529.22" from="637031477#0" to="30609421#0" departLane="best" type="veh_passenger"/>
    <trip id="veh213" depart="531.72" from="4250577#2" to="164679417" departLane="best" type="veh_passenger"/>
    <trip id="veh214" depart="534.21" from="496742426" to="227558478" departLane="best" type="veh_passenger"/>
    <trip id="veh215" depart="536.71" from="67822899#0" to="4255410#0" departLane="best" type="veh_passenger"/>
    <trip id="veh216" depart="539.20" from="1068358101" to="-4969733#0" departLane="best" type="veh_passenger" departSpeed="max"/>
    <trip id="veh217" depart="541.70" from="-4255087#1" to="3754017#0" departLane="best" type="veh_passenger"/>
    <trip id="veh218" depart="544.20" from="4255369" to="186578128" departLane="best" type="veh_passenger"/>
    <trip id="veh219" depart="546.69" from="243346496#0" to="-552492779#1" departLane="best" type="veh_passenger" departSpeed="max"/>
    <trip id="veh220" depart="549.19" from="-155450982" to="-596680098#2" departLane="best" type="veh_passenger" departSpeed="max"/>
    <trip id="veh221" depart="551.69" from="-4256511" to="-726583329#0" departLane="best" type="veh_passenger" departSpeed="max"/>
    <trip id="veh222" depart="554.18" from="146418648#1" to="-27792710#1" departLane="best" type="veh_passenger"/>
    <trip id="veh223" depart="556.68" from="-4253601#4" to="4253266#0" departLane="best" type="veh_passenger"/>
    <trip id="veh224" depart="559.18" from="41518094#0" to="-1362713868" departLane="best" type="veh_passenger"/>
    <trip id="veh225" depart="561.67" from="-8431669#1" to="227387820" departLane="best" type="veh_passenger" departSpeed="max"/>
    <trip id="veh226" depart="564.17" from="-896847189" to="643233290#0" departLane="best" type="veh_passenger"/>
    <trip id="veh227" depart="566.66" from="197476980#0" to="4253269#0" departLane="best" type="veh_passenger"/>
    <trip id="veh228" depart="569.16" from="563014826#0" to="4268660" departLane="best" type="veh_passenger" departSpeed="max"/>
    <trip id="veh229" depart="571.66" from="-694839518#2" to="-1065099801#1" departLane="best" type="veh_passenger"/>
    <trip id="veh230" depart="574.15" from="-6012205#8" to="4255932#0" departLane="best" type="veh_passenger" departSpeed="max"/>
    <trip id="veh231" depart="576.65" from="552902479" to="851939645#0" departLane="best" type="veh_passenger"/>
    <trip id="veh232" depart="579.15" from="-896794987" to="4255822#0" departLane="best" type="veh_passenger" departSpeed="max"/>
    <trip id="veh233" depart="581.64" from="154540870#0" to="28811322#0" departLane="best" type="veh_passenger"/>
    <trip id="veh234" depart="584.14" from="-4253294#2" to="-4255329#0" departLane="best" type="veh_passenger" departSpeed="max"/>
    <trip id="veh235" depart="586.63" from="-977098616" to="-1069720384#1" departLane="best" type="veh_passenger" departSpeed="max"/>
    <trip id="veh236" depart="589.13" from="-537856042#1" to="420950311#0" departLane="best" type="veh_passenger" departSpeed="max"/>
    <trip id="veh237" depart="591.63" from="-840276312" to="-394239869#3" departLane="best" type="veh_passenger"/>
    <trip id="veh238" depart="594.12" from="1065218296#2" to="-250325170#0" departLane="best" type="veh_passenger"/>
    <trip id="veh239" depart="596.62" from="2415108" to="-1068558756" departLane="best" type="veh_passenger"/>
    <trip id="veh240" depart="599.12" from="-827537943#0" to="232287545#0" departLane="best" type="veh_passenger"/>
    <trip id="veh241" depart="601.61" from="-1069720384#1" to="3754849" departLane="best" type="veh_passenger"/>
    <trip id="veh242" depart="604.11" from="-250325170#0" to="1306891832#0" departLane="best" type="veh_passenger"/>
    <trip id="veh243" depart="606.61" from="-1278889013#2" to="1009104503#0" departLane="best" type="veh_passenger"/>
    <trip id="veh244" depart="609.10" from="-42471572#2" to="-73388118#3" departLane="best" type="veh_passenger"/>
    <trip id="veh245" depart="611.60" from="4255329#0" to="1009104503#0" departLane="best" type="veh_passenger" departSpeed="max"/>