<?xml version="1.0" encoding="UTF-8"?>

<!-- generated on 2025-03-15 15:40:56.002876 by osmWebWizard.py v1_22_0+0002-63e50f52594
<configuration>
    <net-file value="C:\Users\lolam\2025-03-15-15-40-28\osm.net.xml.gz"/>
    <output-trip-file value="C:\Users\lolam\2025-03-15-15-40-28\osm.passenger.trips.xml"/>
    <route-file value="C:\Users\lolam\2025-03-15-15-40-28\osm.passenger.rou.xml"/>
    <prefix value="veh"/>
    <trip-attributes value="departLane=&quot;best&quot;"/>
    <fringe-start-attributes value="departSpeed=&quot;max&quot;"/>
    <vehicle-class value="passenger"/>
    <lanes value="True"/>
    <fringe-factor value="5"/>
    <allow-fringe.min-length value="1000.0"/>
    <via-edge-types value="highway.motorway,highway.motorway_link,highway.trunk_link,highway.primary_link,highway.secondary_link,highway.tertiary_link"/>
    <min-distance value="300.0"/>
    <min-distance.fringe value="10.0"/>
    <remove-loops value="True"/>
    <validate value="True"/>
    <insertion-density value="12.0"/>
</configuration>
-->

<!-- generated on 2025-03-15 15:40:55 by Eclipse SUMO duarouter Version 1.22.0
<duarouterConfiguration xmlns:xsi="http://www.w3.org/2001/XMLSchema-instance" xsi:noNamespaceSchemaLocation="http://sumo.dlr.de/xsd/duarouterConfiguration.xsd">

    <input>
        <net-file value="C:\Users\lolam\2025-03-15-15-40-28\osm.net.xml.gz"/>
        <route-files value="C:\Users\lolam\2025-03-15-15-40-28\osm.passenger.trips.xml"/>
    </input>

    <output>
        <output-file value="C:\Users\lolam\2025-03-15-15-40-28\osm.passenger.trips.xml.tmp"/>
        <alternatives-output value="NUL"/>
        <write-trips value="true"/>
    </output>

    <processing>
        <remove-loops value="true"/>
    </processing>

    <time>
        <begin value="0.0"/>
        <end value="3600.0"/>
    </time>

    <report>
        <no-warnings value="true"/>
        <ignore-errors value="true"/>
        <no-step-log value="true"/>
    </report>

</duarouterConfiguration>
-->

<routes xmlns:xsi="http://www.w3.org/2001/XMLSchema-instance" xsi:noNamespaceSchemaLocation="http://sumo.dlr.de/xsd/routes_file.xsd">
    <vType id="veh_passenger" vClass="passenger"/>
    <trip id="veh0" type="veh_passenger" depart="0.00" departLane="best" from="2514019#0" to="-1068361596"/>
    <trip id="veh1" type="veh_passenger" depart="2.50" departLane="best" departSpeed="max" from="4270743" to="-4255368#1"/>
    <trip id="veh2" type="veh_passenger" depart="4.99" departLane="best" from="4253608#0" to="4084180"/>
    <trip id="veh3" type="veh_passenger" depart="7.49" departLane="best" from="643233291#0" to="-170470267#2"/>
    <trip id="veh4" type="veh_passenger" depart="9.99" departLane="best" from="901407345" to="-1083286827#0"/>
    <trip id="veh5" type="veh_passenger" depart="12.48" departLane="best" departSpeed="max" from="-4253266#5" to="164679417"/>
    <trip id="veh6" type="veh_passenger" depart="14.98" departLane="best" from="3076852#0" to="-4253449#5"/>
    <trip id="veh7" type="veh_passenger" depart="17.47" departLane="best" from="286754706#0" to="227390982"/>
    <trip id="veh8" type="veh_passenger" depart="19.97" departLane="best" departSpeed="max" from="-4253294#2" to="257772662"/>
    <trip id="veh9" type="veh_passenger" depart="22.47" departLane="best" departSpeed="max" from="4607839" to="-1065112883"/>
    <trip id="veh10" type="veh_passenger" depart="24.96" departLane="best" from="456796604" to="4253383#0"/>
    <trip id="veh11" type="veh_passenger" depart="27.46" departLane="best" from="841533481" to="-780411383"/>
    <trip id="veh12" type="veh_passenger" depart="29.96" departLane="best" from="-18131106#1" to="-186578128"/>
    <trip id="veh13" type="veh_passenger" depart="32.45" departLane="best" from="534033246#1" to="28811328#0"/>
    <trip id="veh14" type="veh_passenger" depart="34.95" departLane="best" from="459433619#0" to="4254662#8"/>
    <trip id="veh15" type="veh_passenger" depart="37.44" departLane="best" from="1362114227#0" to="901407338#1"/>
    <trip id="veh16" type="veh_passenger" depart="39.94" departLane="best" from="693628464" to="22812251"/>
    <trip id="veh17" type="veh_passenger" depart="42.44" departLane="best" from="493711859#0" to="-32592873#2"/>
    <trip id="veh18" type="veh_passenger" depart="44.93" departLane="best" from="578170386" to="2499055"/>
    <trip id="veh20" type="veh_passenger" depart="49.93" departLane="best" departSpeed="max" from="-4253440#2" to="-6012205#4"/>
    <trip id="veh21" type="veh_passenger" depart="52.42" departLane="best" from="-155894302" to="-4256524#3"/>
    <trip id="veh22" type="veh_passenger" depart="54.92" departLane="best" from="201756812#14" to="-563014826#2"/>
    <trip id="veh24" type="veh_passenger" depart="59.91" departLane="best" departSpeed="max" from="-4255948#2" to="827537943#1"/>
    <trip id="veh25" type="veh_passenger" depart="62.41" departLane="best" from="279401433" to="295993258"/>
    <trip id="veh26" type="veh_passenger" depart="64.90" departLane="best" from="-369663857" to="4254662#0"/>
    <trip id="veh27" type="veh_passenger" depart="67.40" departLane="best" from="971510105" to="3754026"/>
    <trip id="veh28" type="veh_passenger" depart="69.90" departLane="best" departSpeed="max" from="158615412" to="4231084#0"/>
    <trip id="veh29" type="veh_passenger" depart="72.39" departLane="best" from="-511856175#1" to="4340873#0"/>
    <trip id="veh30" type="veh_passenger" depart="74.89" departLane="best" from="-4253449#2" to="1145543201"/>
    <trip id="veh31" type="veh_passenger" depart="77.39" departLane="best" departSpeed="max" from="-4833001#2" to="-517045944#3"/>
    <trip id="veh32" type="veh_passenger" depart="79.88" departLane="best" departSpeed="max" from="-4223940#1" to="-833222606"/>
    <trip id="veh33" type="veh_passenger" depart="82.38" departLane="best" departSpeed="max" from="609056649" to="694838645#1"/>
    <trip id="veh34" type="veh_passenger" depart="84.87" departLane="best" from="73058401" to="1264780821"/>
    <trip id="veh35" type="veh_passenger" depart="87.37" departLane="best" departSpeed="max" from="-4255916#3" to="444894366"/>
    <trip id="veh36" type="veh_passenger" depart="89.87" departLane="best" from="166585295#1" to="-502509272"/>
    <trip id="veh37" type="veh_passenger" depart="92.36" departLane="best" from="19803901#0" to="6273411"/>
    <trip id="veh38" type="veh_passenger" depart="94.86" departLane="best" from="-831783069#3" to="-4255329#0"/>
    <trip id="veh39" type="veh_passenger" depart="97.36" departLane="best" from="-978195958" to="166594100"/>
    <trip id="veh40" type="veh_passenger" depart="99.85" departLane="best" from="-174640049" to="1220704300"/>
    <trip id="veh41" type="veh_passenger" depart="102.35" departLane="best" from="227558478" to="3709266#2"/>
    <trip id="veh42" type="veh_passenger" depart="104.85" departLane="best" from="4340737" to="-1145478722#3"/>
    <trip id="veh43" type="veh_passenger" depart="107.34" departLane="best" from="140160990#0" to="-920596373"/>
    <trip id="veh45" type="veh_passenger" depart="112.33" departLane="best" departSpeed="max" from="969918601" to="4254079#1"/>
    <trip id="veh46" type="veh_passenger" depart="114.83" departLane="best" from="-4255941" to="3754070#0"/>
    <trip id="veh47" type="veh_passenger" depart="117.33" departLane="best" from="228015712#0" to="121898253"/>
    <trip id="veh48" type="veh_passenger" depart="119.82" departLane="best" from="-773853949" to="-250325170#0"/>
    <trip id="veh49" type="veh_passenger" depart="122.32" departLane="best" departSpeed="max" from="609056649" to="-5067431#1"/>
    <trip id="veh50" type="veh_passenger" depart="124.82" departLane="best" from="-120241882" to="-4223933#3"/>
    <trip id="veh51" type="veh_passenger" depart="127.31" departLane="best" from="726583329#1" to="562832542"/>
    <trip id="veh52" type="veh_passenger" depart="129.81" departLane="best" from="-458181878#1" to="3754020#1"/>
    <trip id="veh53" type="veh_passenger" depart="132.30" departLane="best" from="227392484#0" to="35359130#0"/>
    <trip id="veh54" type="veh_passenger" depart="134.80" departLane="best" from="4255352" to="207807965#0"/>
    <trip id="veh55" type="veh_passenger" depart="137.30" departLane="best" from="-4256510" to="201757213#1"/>
    <trip id="veh56" type="veh_passenger" depart="139.79" departLane="best" from="-100306144" to="732154817#0"/>
    <trip id="veh57" type="veh_passenger" depart="142.29" departLane="best" from="1065218295" to="745522849#2"/>
    <trip id="veh58" type="veh_passenger" depart="144.79" departLane="best" from="-61074713#2" to="4839579#0"/>
    <trip id="veh59" type="veh_passenger" depart="147.28" departLane="best" from="-461488082" to="1330781220"/>
    <trip id="veh60" type="veh_passenger" depart="149.78" departLane="best" from="47047809#0" to="840264350#3"/>
    <trip id="veh61" type="veh_passenger" depart="152.28" departLane="best" from="166585298#2" to="154540881#2"/>
    <trip id="veh63" type="veh_passenger" depart="157.27" departLane="best" from="-4255369" to="-250328427#0"/>
    <trip id="veh64" type="veh_passenger" depart="159.76" departLane="best" from="1068477985" to="22780597"/>
    <trip id="veh65" type="veh_passenger" depart="162.26" departLane="best" departSpeed="max" from="-4255932#1" to="578170386"/>
    <trip id="veh66" type="veh_passenger" depart="164.76" departLane="best" departSpeed="max" from="-908516371" to="-4254629"/>
    <trip id="veh67" type="veh_passenger" depart="167.25" departLane="best" departSpeed="max" from="1362713868" to="4254685#0"/>
    <trip id="veh68" type="veh_passenger" depart="169.75" departLane="best" from="-4084013#0" to="-691547353"/>
    <trip id="veh69" type="veh_passenger" depart="172.25" departLane="best" from="977104959#0" to="379485583#0"/>
    <trip id="veh70" type="veh_passenger" depart="174.74" departLane="best" from="18131101" to="17983297#0"/>
    <trip id="veh71" type="veh_passenger" depart="177.24" departLane="best" departSpeed="max" from="-23162166" to="-4255372#3"/>
    <trip id="veh72" type="veh_passenger" depart="179.73" departLane="best" departSpeed="max" from="-544787766" to="256771620"/>
    <trip id="veh73" type="veh_passenger" depart="182.23" departLane="best" departSpeed="max" from="-4253530#1" to="-4255329#0"/>
    <trip id="veh74" type="veh_passenger" depart="184.73" departLane="best" departSpeed="max" from="-154540879#3" to="3727760#2"/>
    <trip id="veh75" type="veh_passenger" depart="187.22" departLane="best" from="-4253449#2" to="643233292#0"/>
    <trip id="veh76" type="veh_passenger" depart="189.72" departLane="best" from="569089299" to="-151942042#1"/>
    <trip id="veh77" type="veh_passenger" depart="192.22" departLane="best" from="-4253827" to="148314505"/>
    <trip id="veh78" type="veh_passenger" depart="194.71" departLane="best" departSpeed="max" from="-4250577#4" to="-2514020#2"/>
    <trip id="veh79" type="veh_passenger" depart="197.21" departLane="best" from="79318523" to="2428140#0"/>
    <trip id="veh80" type="veh_passenger" depart="199.71" departLane="best" departSpeed="max" from="1068358101" to="4352114#0"/>
    <trip id="veh81" type="veh_passenger" depart="202.20" departLane="best" from="459930801" to="-4253383#4"/>
    <trip id="veh82" type="veh_passenger" depart="204.70" departLane="best" from="-19803901#0" to="1193908604"/>
    <trip id="veh83" type="veh_passenger" depart="207.19" departLane="best" departSpeed="max" from="-908516371" to="1339755351#0"/>
    <trip id="veh84" type="veh_passenger" depart="209.69" departLane="best" from="4253423" to="4084012#0"/>
    <trip id="veh85" type="veh_passenger" depart="212.19" departLane="best" from="949222753#0" to="-19803901#0"/>
    <trip id="veh86" type="veh_passenger" depart="214.68" departLane="best" from="8367174#0" to="-819273391#1"/>
    <trip id="veh87" type="veh_passenger" depart="217.18" departLane="best" from="578170386" to="-4607839"/>
    <trip id="veh89" type="veh_passenger" depart="222.17" departLane="best" from="-901407348" to="-563014826#2"/>
    <trip id="veh90" type="veh_passenger" depart="224.67" departLane="best" departSpeed="max" from="-4255327" to="-732152397"/>
    <trip id="veh91" type="veh_passenger" depart="227.16" departLane="best" from="100306119" to="534033248#1"/>
    <trip id="veh92" type="veh_passenger" depart="229.66" departLane="best" from="156097875#1" to="-1255793036"/>
    <trip id="veh93" type="veh_passenger" depart="232.16" departLane="best" from="99944949#0" to="4839806#0"/>
    <trip id="veh94" type="veh_passenger" depart="234.65" departLane="best" from="888781925#0" to="74167680"/>
    <trip id="veh95" type="veh_passenger" depart="237.15" departLane="best" from="534033248#0" to="-39535531#1"/>
    <trip id="veh96" type="veh_passenger" depart="239.65" departLane="best" from="1124724126" to="-4254651#1"/>
    <trip id="veh97" type="veh_passenger" depart="242.14" departLane="best" departSpeed="max" from="4352250#0" to="-1339922648#1"/>
    <trip id="veh98" type="veh_passenger" depart="244.64" departLane="best" from="693628464" to="969918601"/>
    <trip id="veh99" type="veh_passenger" depart="247.14" departLane="best" departSpeed="max" from="-4255932#1" to="4352113#3"/>
    <trip id="veh100" type="veh_passenger" depart="249.63" departLane="best" from="-146418648#0" to="1145543201"/>
    <trip id="veh101" type="veh_passenger" depart="252.13" departLane="best" from="841533481" to="98985497#2"/>
    <trip id="veh103" type="veh_passenger" depart="257.12" departLane="best" departSpeed="max" from="-28811328#3" to="-612050466"/>
    <trip id="veh104" type="veh_passenger" depart="259.62" departLane="best" from="-888781924" to="2499080#1"/>
    <trip id="veh105" type="veh_passenger" depart="262.11" departLane="best" from="405576219" to="4255856#0"/>
    <trip id="veh106" type="veh_passenger" depart="264.61" departLane="best" departSpeed="max" from="-1341027691#2" to="250328430#6"/>
    <trip id="veh107" type="veh_passenger" depart="267.11" departLane="best" from="1209394318" to="5067434#7"/>
    <trip id="veh108" type="veh_passenger" depart="269.60" departLane="best" from="-303994872#1" to="888781920#1"/>
    <trip id="veh109" type="veh_passenger" depart="272.10" departLane="best" from="-156097875#0" to="-42527972#0"/>
    <trip id="veh110" type="veh_passenger" depart="274.59" departLane="best" from="207807964#0" to="4084180"/>
    <trip id="veh111" type="veh_passenger" depart="277.09" departLane="best" from="-4253789" to="-243346496#2"/>
    <trip id="veh112" type="veh_passenger" depart="279.59" departLane="best" from="-628446081" to="1161074604#4"/>
    <trip id="veh113" type="veh_passenger" depart="282.08" departLane="best" from="207807963#0" to="1256523632#0"/>
    <trip id="veh114" type="veh_passenger" depart="284.58" departLane="best" departSpeed="max" from="-896794987" to="250328430#5"/>
    <trip id="veh115" type="veh_passenger" depart="287.08" departLane="best" from="1285809539#0" to="-1065099801#1"/>
    <trip id="veh116" type="veh_passenger" depart="289.57" departLane="best" departSpeed="max" from="-4135475#3" to="4253797#0"/>
    <trip id="veh117" type="veh_passenger" depart="292.07" departLane="best" from="3700585#2" to="-6273407"/>
    <trip id="veh118" type="veh_passenger" depart="294.57" departLane="best" departSpeed="max" from="-4833033#2" to="4255916#0"/>
    <trip id="veh119" type="veh_passenger" depart="297.06" departLane="best" from="154540881#0" to="1264780821"/>
    <trip id="veh120" type="veh_passenger" depart="299.56" departLane="best" from="99944947#0" to="98985497#2"/>
    <trip id="veh121" type="veh_passenger" depart="302.05" departLane="best" departSpeed="max" from="-154540885" to="-4254638#7"/>
    <trip id="veh122" type="veh_passenger" depart="304.55" departLane="best" departSpeed="max" from="-4255932#1" to="79318523"/>
    <trip id="veh123" type="veh_passenger" depart="307.05" departLane="best" departSpeed="max" from="616811841#0" to="6012205#5"/>
    <trip id="veh124" type="veh_passenger" depart="309.54" departLane="best" from="637031477#0" to="-3713822#3"/>
    <trip id="veh125" type="veh_passenger" depart="312.04" departLane="best" departSpeed="max" from="4969733#0" to="4253430#0"/>
    <trip id="veh126" type="veh_passenger" depart="314.54" departLane="best" from="227558478" to="971510104"/>
    <trip id="veh127" type="veh_passenger" depart="317.03" departLane="best" from="293598611" to="-1065201821#0"/>
    <trip id="veh129" type="veh_passenger" depart="322.03" departLane="best" from="-250325163" to="-234295188#3"/>
    <trip id="veh130" type="veh_passenger" depart="324.52" departLane="best" from="4256524#0" to="28811328#0"/>
    <trip id="veh131" type="veh_passenger" depart="327.02" departLane="best" from="4248704#12" to="-4253639#0"/>
    <trip id="veh132" type="veh_passenger" depart="329.51" departLane="best" from="250325162" to="5067434#9"/>
    <trip id="veh133" type="veh_passenger" depart="332.01" departLane="best" from="-1145543201" to="643233291#0"/>
    <trip id="veh134" type="veh_passenger" depart="334.51" departLane="best" from="534031400#2" to="-18122224#2"/>
    <trip id="veh135" type="veh_passenger" depart="337.00" departLane="best" departSpeed="max" from="-908516371" to="557204292#0"/>
    <trip id="veh136" type="veh_passenger" depart="339.50" departLane="best" from="1054937079" to="4336664#5"/>
    <trip id="veh137" type="veh_passenger" depart="342.00" departLane="best" from="-250328430#5" to="-502509254#0"/>
    <trip id="veh138" type="veh_passenger" depart="344.49" departLane="best" from="4253683" to="22812251"/>
    <trip id="veh139" type="veh_passenger" depart="346.99" departLane="best" departSpeed="max" from="959924582" to="691547352"/>
    <trip id="veh140" type="veh_passenger" depart="349.48" departLane="best" from="-154540889#0" to="60266052#3"/>
    <trip id="veh141" type="veh_passenger" depart="351.98" departLane="best" from="693628464" to="227392231#0"/>
    <trip id="veh142" type="veh_passenger" depart="354.48" departLane="best" from="49780458#0" to="-250328430#3"/>
    <trip id="veh143" type="veh_passenger" depart="356.97" departLane="best" departSpeed="max" from="-27115356" to="-250325170#0"/>
    <trip id="veh144" type="veh_passenger" depart="359.47" departLane="best" from="1068015002" to="-627472867"/>
    <trip id="veh145" type="veh_passenger" depart="361.97" departLane="best" from="4352113#2" to="534033247#2"/>
    <trip id="veh146" type="veh_passenger" depart="364.46" departLane="best" departSpeed="max" from="67850646" to="-4253976#0"/>
    <trip id="veh147" type="veh_passenger" depart="366.96" departLane="best" departSpeed="max" from="-4255327" to="-207807963#1"/>
    <trip id="veh148" type="veh_passenger" depart="369.46" departLane="best" from="4256577#0" to="609058172#0"/>
    <trip id="veh150" type="veh_passenger" depart="374.45" departLane="best" departSpeed="max" from="-28811328#3" to="-1232788895"/>
    <trip id="veh151" type="veh_passenger" depart="376.94" departLane="best" from="581735920#0" to="9354230"/>
    <trip id="veh152" type="veh_passenger" depart="379.44" departLane="best" from="461650982#0" to="60266052#0"/>
    <trip id="veh153" type="veh_passenger" depart="381.94" departLane="best" from="-1068362579" to="4255329#1"/>
    <trip id="veh154" type="veh_passenger" depart="384.43" departLane="best" from="1065201829" to="773853950"/>
    <trip id="veh155" type="veh_passenger" depart="386.93" departLane="best" from="-675565971#0" to="544787769"/>
    <trip id="veh156" type="veh_passenger" depart="389.43" departLane="best" from="461650982#0" to="511856175#0"/>
    <trip id="veh157" type="veh_passenger" depart="391.92" departLane="best" from="4268660" to="-207811356#1"/>
    <trip id="veh158" type="veh_passenger" depart="394.42" departLane="best" departSpeed="max" from="6012211" to="534031400#2"/>
    <trip id="veh159" type="veh_passenger" depart="396.91" departLane="best" from="-4253383#4" to="4615512#0"/>
    <trip id="veh160" type="veh_passenger" depart="399.41" departLane="best" from="1065201832" to="-651508941"/>
    <trip id="veh161" type="veh_passenger" depart="401.91" departLane="best" departSpeed="max" from="4352112" to="-425548225#1"/>
    <trip id="veh162" type="veh_passenger" depart="404.40" departLane="best" departSpeed="max" from="-1068357078" to="-4253416#2"/>
    <trip id="veh163" type="veh_passenger" depart="406.90" departLane="best" from="-5067434#10" to="544787770#0"/>
    <trip id="veh164" type="veh_passenger" depart="409.40" departLane="best" from="1264780822" to="-569089299"/>
    <trip id="veh165" type="veh_passenger" depart="411.89" departLane="best" from="25247811#3" to="1065201844#1"/>
    <trip id="veh166" type="veh_passenger" depart="414.39" departLane="best" from="948878641" to="-204125844"/>
    <trip id="veh167" type="veh_passenger" depart="416.89" departLane="best" from="809008496#0" to="-234295188#3"/>
    <trip id="veh168" type="veh_passenger" depart="419.38" departLane="best" from="894935974" to="-4223933#3"/>
    <trip id="veh169" type="veh_passenger" depart="421.88" departLane="best" departSpeed="max" from="851786599" to="5067434#7"/>
    <trip id="veh170" type="veh_passenger" depart="424.37" departLane="best" from="-227392231#1" to="1211386639"/>
    <trip id="veh171" type="veh_passenger" depart="426.87" departLane="best" from="-4253419#0" to="-693628472"/>
    <trip id="veh172" type="veh_passenger" depart="429.37" departLane="best" from="227390977#3" to="-170470267#5"/>
    <trip id="veh173" type="veh_passenger" depart="431.86" departLane="best" from="732154817#4" to="-2498997#0"/>
    <trip id="veh174" type="veh_passenger" depart="434.36" departLane="best" from="4255368#1" to="4253487"/>
    <trip id="veh175" type="veh_passenger" depart="436.86" departLane="best" from="166482547" to="73823309"/>
    <trip id="veh176" type="veh_passenger" depart="439.35" departLane="best" departSpeed="max" from="1362713868" to="4254003"/>
    <trip id="veh177" type="veh_passenger" depart="441.85" departLane="best" departSpeed="max" from="4253686" to="405576220#0"/>
    <trip id="veh180" type="veh_passenger" depart="449.34" departLane="best" from="-479915597#4" to="49780455"/>
    <trip id="veh181" type="veh_passenger" depart="451.83" departLane="best" from="4252510#0" to="-6273407"/>
    <trip id="veh182" type="veh_passenger" depart="454.33" departLane="best" from="1055385140#0" to="1068072015#1"/>
    <trip id="veh183" type="veh_passenger" depart="456.83" departLane="best" from="-8367174#2" to="-611349169"/>
    <trip id="veh184" type="veh_passenger" depart="459.32" departLane="best" from="-246647169#3" to="1124724126"/>
    <trip id="veh185" type="veh_passenger" depart="461.82" departLane="best" departSpeed="max" from="819273391#0" to="41518094#0"/>
    <trip id="veh186" type="veh_passenger" depart="464.32" departLane="best" from="693628457" to="3076785#0"/>
    <trip id="veh187" type="veh_passenger" depart="466.81" departLane="best" departSpeed="max" from="-45887561#2" to="-227558478"/>
    <trip id="veh188" type="veh_passenger" depart="469.31" departLane="best" from="-100306144" to="-6012202#1"/>
    <trip id="veh189" type="veh_passenger" depart="471.80" departLane="best" departSpeed="max" from="-97175531#1" to="2499081#1"/>
    <trip id="veh190" type="veh_passenger" depart="474.30" departLane="best" from="2953548#0" to="1317023784"/>
    <trip id="veh191" type="veh_passenger" depart="476.80" departLane="best" departSpeed="max" from="-99944945" to="-4254643"/>
    <trip id="veh192" type="veh_passenger" depart="479.29" departLane="best" departSpeed="max" from="1068358101" to="627472867"/>
    <trip id="veh194" type="veh_passenger" depart="484.29" departLane="best" from="-166585294#1" to="174640049"/>
    <trip id="veh195" type="veh_passenger" depart="486.78" departLane="best" departSpeed="max" from="48379490" to="4255916#0"/>
    <trip id="veh196" type="veh_passenger" depart="489.28" departLane="best" from="-494897032#1" to="-4255372#3"/>
    <trip id="veh197" type="veh_passenger" depart="491.77" departLane="best" departSpeed="max" from="-405576220#1" to="-1068358101"/>
    <trip id="veh198" type="veh_passenger" depart="494.27" departLane="best" from="-4254662#9" to="146418648#1"/>
    <trip id="veh199" type="veh_passenger" depart="496.77" departLane="best" from="-534082989#3" to="154540870#1"/>
    <trip id="veh200" type="veh_passenger" depart="499.26" departLane="best" departSpeed="max" from="-87082517" to="-3713822#3"/>
    <trip id="veh201" type="veh_passenger" depart="501.76" departLane="best" from="3959463#0" to="4253294#1"/>
    <trip id="veh202" type="veh_passenger" depart="504.26" departLane="best" departSpeed="max" from="117028044" to="-4352312#1"/>
    <trip id="veh203" type="veh_passenger" depart="506.75" departLane="best" from="166490649" to="-1055385139#1"/>
    <trip id="veh204" type="veh_passenger" depart="509.25" departLane="best" from="4254627#0" to="4336664#2"/>
    <trip id="veh205" type="veh_passenger" depart="511.75" departLane="best" from="207807964#0" to="1161286764"/>
    <trip id="veh206" type="veh_passenger" depart="514.24" departLane="best" departSpeed="max" from="-37329800" to="88389212#0"/>
    <trip id="veh207" type="veh_passenger" depart="516.74" departLane="best" from="1260446771" to="156097875#3"/>
    <trip id="veh208" type="veh_passenger" depart="519.23" departLane="best" departSpeed="max" from="-4255327" to="49780458#0"/>
    <trip id="veh209" type="veh_passenger" depart="521.73" departLane="best" from="-1065201824#3" to="4484039#0"/>
    <trip id="veh210" type="veh_passenger" depart="524.23" departLane="best" departSpeed="max" from="356738820" to="217063331"/>
    <trip id="veh211" type="veh_passenger" depart="526.72" departLane="best" from="-207807965#0" to="-510234237#1"/>
    <trip id="veh212" type="veh_passenger" depart="529.22" departLane="best" from="-637031477#1" to="-30609421#1"/>
    <trip id="veh213" type="veh_passenger" depart="531.72" departLane="best" from="4250577#2" to="164679417"/>
    <trip id="veh214" type="veh_passenger" depart="534.21" departLane="best" from="496742426" to="-227558478"/>
    <trip id="veh215" type="veh_passenger" depart="536.71" departLane="best" from="67822899#0" to="4255410#0"/>
    <trip id="veh216" type="veh_passenger" depart="539.20" departLane="best" departSpeed="max" from="1068358101" to="-4969733#0"/>
    <trip id="veh217" type="veh_passenger" depart="541.70" departLane="best" from="-4255087#1" to="3754017#0"/>
    <trip id="veh218" type="veh_passenger" depart="544.20" departLane="best" from="-4255369" to="-186578128"/>
    <trip id="veh219" type="veh_passenger" depart="546.69" departLane="best" departSpeed="max" from="243346496#0" to="-552492779#1"/>
    <trip id="veh220" type="veh_passenger" depart="549.19" departLane="best" departSpeed="max" from="-155450982" to="-596680098#2"/>
    <trip id="veh221" type="veh_passenger" depart="551.69" departLane="best" departSpeed="max" from="-4256511" to="-726583329#0"/>
    <trip id="veh222" type="veh_passenger" depart="554.18" departLane="best" from="-1065201821#0" to="27792710#1"/>
    <trip id="veh223" type="veh_passenger" depart="556.68" departLane="best" from="-4253601#4" to="4253266#0"/>
    <trip id="veh224" type="veh_passenger" depart="559.18" departLane="best" from="41518094#0" to="-1362713868"/>
    <trip id="veh225" type="veh_passenger" depart="561.67" departLane="best" departSpeed="max" from="-8431669#1" to="227387820"/>
    <trip id="veh226" type="veh_passenger" depart="564.17" departLane="best" from="-896847189" to="643233290#0"/>
    <trip id="veh227" type="veh_passenger" depart="566.66" departLane="best" from="197476980#0" to="-4253269#1"/>
    <trip id="veh228" type="veh_passenger" depart="569.16" departLane="best" departSpeed="max" from="563014826#0" to="224300397"/>
    <trip id="veh229" type="veh_passenger" depart="571.66" departLane="best" from="-694839518#2" to="-1065099801#1"/>
    <trip id="veh230" type="veh_passenger" depart="574.15" departLane="best" departSpeed="max" from="-6012205#8" to="4255932#0"/>
    <trip id="veh231" type="veh_passenger" depart="576.65" departLane="best" from="552902479" to="851939645#0"/>
    <trip id="veh232" type="veh_passenger" depart="579.15" departLane="best" departSpeed="max" from="-896794987" to="4255822#0"/>
    <trip id="veh233" type="veh_passenger" depart="581.64" departLane="best" from="-154540870#0" to="28811322#0"/>
    <trip id="veh234" type="veh_passenger" depart="584.14" departLane="best" departSpeed="max" from="-4253294#2" to="-4255329#0"/>
    <trip id="veh235" type="veh_passenger" depart="586.63" departLane="best" departSpeed="max" from="-977098616" to="-1069720384#1"/>
    <trip id="veh236" type="veh_passenger" depart="589.13" departLane="best" departSpeed="max" from="-537856042#1" to="420950311#0"/>
    <trip id="veh237" type="veh_passenger" depart="591.63" departLane="best" from="-840276312" to="394239869#2"/>
    <trip id="veh238" type="veh_passenger" depart="594.12" departLane="best" from="-1065218298#1" to="-250325170#0"/>
    <trip id="veh239" type="veh_passenger" depart="596.62" departLane="best" from="-2415108" to="-1068558756"/>
    <trip id="veh241" type="veh_passenger" depart="601.61" departLane="best" from="227387820" to="3754849"/>
    <trip id="veh242" type="veh_passenger" depart="604.11" departLane="best" from="859453205#0" to="-897596003"/>
    <trip id="veh243" type="veh_passenger" depart="606.61" departLane="best" from="230191247" to="1009104503#0"/>
    <trip id="veh244" type="veh_passenger" depart="609.10" departLane="best" from="-42471572#2" to="-73388118#3"/>
    <trip id="veh245" type="veh_passenger" depart="611.60" departLane="best" departSpeed="max" from="4255329#0" to="1009104503#0"/>
    <trip id="veh246" type="veh_passenger" depart="614.09" departLane="best" from="4254638#2" to="4839579#2"/>